/*--------------------------------*- C++ -*----------------------------------*\
| =========                 |                                                 |
| \\      /  F ield         | OpenFOAM: The Open Source CFD Toolbox           |
|  \\    /   O peration     | Version:  1.3                                   |
|   \\  /    A nd           | Web:      http://www.openfoam.org               |
|    \\/     M anipulation  |                                                 |
\*---------------------------------------------------------------------------*/

FoamFile
{
    version         2.0;
    format          ascii;
    class           dictionary;
    object          fvSolution;
}

// * * * * * * * * * * * * * * * * * * * * * * * * * * * * * * * * * * * * * //

solvers
{
    p
    {
        solver BiCGStab;
        preconditioner   diagonal;

        minIter          0;
        maxIter          1000; 
        tolerance        1e-07;
        relTol           0.0;
    };

    U
    {
        solver           BiCGStab;
        preconditioner   DILU;

        minIter          0;
        maxIter          1000;
        tolerance        1e-07;
        relTol           0;
    };
    
    epsilon
    {
        solver           BiCGStab;
        preconditioner   DILU;

        minIter          0;
        maxIter          1000;
        tolerance        1e-07;
        relTol           0;
    };

    k
    {
        solver           BiCGStab;
        preconditioner   DILU;

        minIter          0;
        maxIter          1000;
        tolerance        1e-07;
        relTol           0;
    };
}

PISO
{
    nCorrectors     3;
    nNonOrthogonalCorrectors 0;
    pRefCell        0;
    pRefValue       0;
}

SIMPLE
{
    nNonOrthogonalCorrectors 0;
    pRefCell 0;
    pRefValue 0;
}

relaxationFactors
{
    p               0.1;
    U               0.2;
    k               0.2;
    epsilon         0.2;
}

// ************************************************************************* //
