// -*- C++ -*-
// File generated by PyFoam - sorry for the ugliness

FoamFile
{
 version 2.0;
 format ascii;
 class dictionary;
 object decomposeParDict;
}

numberOfSubdomains 12;

method metis;

simpleCoeffs
{
  n (2 2 1);
  delta 0.001;
}

hierarchicalCoeffs
{
  n (1 1 1);
  delta 0.001;
  order xyz;
}

metisCoeffs
{
  processorWeights
    (
      1
      1
      1
      1
      1
      1
      1
      1
      1
      1
      1
      1
    );
}

manualCoeffs
{
  dataFile "";
}

distributed no;

roots
  (
  ); 	// ************************************************************************* //

globalFaceZones (
    sideWallA_BB_cyclic1Zone
    sideWallA_BB_cyclic2Zone
    B_UPSTREAMZone
    B_DOWNSTREAMZone
);

