/*---------------------------------------------------------------------------*\ 
| =========                |                                                 | 
| \      /  F ield         | OpenFOAM: The Open Source CFD Toolbox           | 
|  \    /   O peration     | Version:  1.5                                   | 
|   \  /    A nd           | Web:      http://www.openfoam.org               | 
|    \/     M anipulation  |                                                 | 
\*---------------------------------------------------------------------------*/ 
 
FoamFile 
{ 
    version         2.0; 
    format          ascii; 
 
    root            ""; 
    case            ""; 
    instance        ""; 
    local           ""; 
 
    class           dictionary; 
    object          blockMeshDict; 
} 
 
// * * * * * * * * * * * * * * * * * * * * * * * * * * * * * * * * * * * * * // 
convertToMeters 1; 
 
vertices 
( 

   (-0.2289698086	4.3690042146	-0.0050000000)	//	Vertex	R1T1B
   (-0.2289698086	4.3690042146	0.0050000000)	//	Vertex	R1T1T
   (-0.0467914439	4.3747497712	-0.0050000000)	//	Vertex	R1T2B
   (-0.0467914439	4.3747497712	0.0050000000)	//	Vertex	R1T2T
   (0.0000000000	4.3750000000	-0.0050000000)	//	Vertex	R1T3B
   (0.0000000000	4.3750000000	0.0050000000)	//	Vertex	R1T3T
   (0.0467914439	4.3747497712	-0.0050000000)	//	Vertex	R1T4B
   (0.0467914439	4.3747497712	0.0050000000)	//	Vertex	R1T4T
   (0.2289698086	4.3690042146	-0.0050000000)	//	Vertex	R1T5B
   (0.2289698086	4.3690042146	0.0050000000)	//	Vertex	R1T5T
   (-0.2401381687	4.5821092204	-0.0050000000)	//	Vertex	R2T1B
   (-0.2401381687	4.5821092204	0.0050000000)	//	Vertex	R2T1T
   (-0.0500000000	4.5883974596	-0.0050000000)	//	Vertex	R2T2B
   (-0.0500000000	4.5883974596	0.0050000000)	//	Vertex	R2T2T
   (0.0000000000	4.5750000000	-0.0050000000)	//	Vertex	R2T3B
   (0.0000000000	4.5750000000	0.0050000000)	//	Vertex	R2T3T
   (0.0500000000	4.5883974596	-0.0050000000)	//	Vertex	R2T4B
   (0.0500000000	4.5883974596	0.0050000000)	//	Vertex	R2T4T
   (0.2401381687	4.5821092204	-0.0050000000)	//	Vertex	R2T5B
   (0.2401381687	4.5821092204	0.0050000000)	//	Vertex	R2T5T
   (-0.2446705954	4.6685930750	-0.0050000000)	//	Vertex	R3T1B
   (-0.2446705954	4.6685930750	0.0050000000)	//	Vertex	R3T1T
   (-0.1000000000	4.6750000000	-0.0050000000)	//	Vertex	R3T2B
   (-0.1000000000	4.6750000000	0.0050000000)	//	Vertex	R3T2T
   (0.1000000000	4.6750000000	-0.0050000000)	//	Vertex	R3T4B
   (0.1000000000	4.6750000000	0.0050000000)	//	Vertex	R3T4T
   (0.2446705954	4.6685930750	-0.0050000000)	//	Vertex	R3T5B
   (0.2446705954	4.6685930750	0.0050000000)	//	Vertex	R3T5T
   (-0.2492030222	4.7550769296	-0.0050000000)	//	Vertex	R4T1B
   (-0.2492030222	4.7550769296	0.0050000000)	//	Vertex	R4T1T
   (-0.0500000000	4.7616025404	-0.0050000000)	//	Vertex	R4T2B
   (-0.0500000000	4.7616025404	0.0050000000)	//	Vertex	R4T2T
   (0.0000000000	4.7750000000	-0.0050000000)	//	Vertex	R4T3B
   (0.0000000000	4.7750000000	0.0050000000)	//	Vertex	R4T3T
   (0.0500000000	4.7616025404	-0.0050000000)	//	Vertex	R4T4B
   (0.0500000000	4.7616025404	0.0050000000)	//	Vertex	R4T4T
   (0.2492030222	4.7550769296	-0.0050000000)	//	Vertex	R4T5B
   (0.2492030222	4.7550769296	0.0050000000)	//	Vertex	R4T5T
   (-0.2515396897	4.7996632014	-0.0050000000)	//	Vertex	R5T1B
   (-0.2515396897	4.7996632014	0.0050000000)	//	Vertex	R5T1T
   (-0.0514037433	4.8059751058	-0.0050000000)	//	Vertex	R5T2B
   (-0.0514037433	4.8059751058	0.0050000000)	//	Vertex	R5T2T
   (0.0000000000	4.8062500000	-0.0050000000)	//	Vertex	R5T3B
   (0.0000000000	4.8062500000	0.0050000000)	//	Vertex	R5T3T
   (0.0514037433	4.8059751058	-0.0050000000)	//	Vertex	R5T4B
   (0.0514037433	4.8059751058	0.0050000000)	//	Vertex	R5T4T
   (0.2515396897	4.7996632014	-0.0050000000)	//	Vertex	R5T5B
   (0.2515396897	4.7996632014	0.0050000000)	//	Vertex	R5T5T
   (-0.2531751883	4.8308703744	-0.0050000000)	//	Vertex	R6T1B
   (-0.2531751883	4.8308703744	0.0050000000)	//	Vertex	R6T1T
   (-0.0517379679	4.8372233185	-0.0050000000)	//	Vertex	R6T2B
   (-0.0517379679	4.8372233185	0.0050000000)	//	Vertex	R6T2T
   (0.0000000000	4.8375000000	-0.0050000000)	//	Vertex	R6T3B
   (0.0000000000	4.8375000000	0.0050000000)	//	Vertex	R6T3T
   (0.0517379679	4.8372233185	-0.0050000000)	//	Vertex	R6T4B
   (0.0517379679	4.8372233185	0.0050000000)	//	Vertex	R6T4T
   (0.2531751883	4.8308703744	-0.0050000000)	//	Vertex	R6T5B
   (0.2531751883	4.8308703744	0.0050000000)	//	Vertex	R6T5T
   (-0.2531751883	4.8308703744	-0.0050000000)	//	Vertex	R7T1B
   (-0.2531751883	4.8308703744	0.0050000000)	//	Vertex	R7T1T
   (-0.0483750000	4.8372581190	-0.0050000000)	//	Vertex	R7T2B
   (-0.0483750000	4.8372581190	0.0050000000)	//	Vertex	R7T2T
   (0.0000000000	4.8375000000	-0.0050000000)	//	Vertex	R7T3B
   (0.0000000000	4.8375000000	0.0050000000)	//	Vertex	R7T3T
   (0.0483750000	4.8372581190	-0.0050000000)	//	Vertex	R7T4B
   (0.0483750000	4.8372581190	0.0050000000)	//	Vertex	R7T4T
   (0.2531751883	4.8308703744	-0.0050000000)	//	Vertex	R7T5B
   (0.2531751883	4.8308703744	0.0050000000)	//	Vertex	R7T5T
   (-0.2548106870	4.8620775473	-0.0050000000)	//	Vertex	R8T1B
   (-0.2548106870	4.8620775473	0.0050000000)	//	Vertex	R8T1T
   (-0.0486875000	4.8685065564	-0.0050000000)	//	Vertex	R8T2B
   (-0.0486875000	4.8685065564	0.0050000000)	//	Vertex	R8T2T
   (0.0000000000	4.8687500000	-0.0050000000)	//	Vertex	R8T3B
   (0.0000000000	4.8687500000	0.0050000000)	//	Vertex	R8T3T
   (0.0486875000	4.8685065564	-0.0050000000)	//	Vertex	R8T4B
   (0.0486875000	4.8685065564	0.0050000000)	//	Vertex	R8T4T
   (0.2548106870	4.8620775473	-0.0050000000)	//	Vertex	R8T5B
   (0.2548106870	4.8620775473	0.0050000000)	//	Vertex	R8T5T
   (-0.2571473545	4.9066638192	-0.0050000000)	//	Vertex	R9T1B
   (-0.2571473545	4.9066638192	0.0050000000)	//	Vertex	R9T1T
   (-0.0500000000	4.9133974596	-0.0050000000)	//	Vertex	R9T2B
   (-0.0500000000	4.9133974596	0.0050000000)	//	Vertex	R9T2T
   (0.0000000000	4.9000000000	-0.0050000000)	//	Vertex	R9T3B
   (0.0000000000	4.9000000000	0.0050000000)	//	Vertex	R9T3T
   (0.0500000000	4.9133974596	-0.0050000000)	//	Vertex	R9T4B
   (0.0500000000	4.9133974596	0.0050000000)	//	Vertex	R9T4T
   (0.2571473545	4.9066638192	-0.0050000000)	//	Vertex	R9T5B
   (0.2571473545	4.9066638192	0.0050000000)	//	Vertex	R9T5T
   (-0.2616797812	4.9931476738	-0.0050000000)	//	Vertex	R10T1B
   (-0.2616797812	4.9931476738	0.0050000000)	//	Vertex	R10T1T
   (-0.1000000000	5.0000000000	-0.0050000000)	//	Vertex	R10T2B
   (-0.1000000000	5.0000000000	0.0050000000)	//	Vertex	R10T2T
   (0.1000000000	5.0000000000	-0.0050000000)	//	Vertex	R10T4B
   (0.1000000000	5.0000000000	0.0050000000)	//	Vertex	R10T4T
   (0.2616797812	4.9931476738	-0.0050000000)	//	Vertex	R10T5B
   (0.2616797812	4.9931476738	0.0050000000)	//	Vertex	R10T5T
   (-0.2662122080	5.0796315284	-0.0050000000)	//	Vertex	R11T1B
   (-0.2662122080	5.0796315284	0.0050000000)	//	Vertex	R11T1T
   (-0.0500000000	5.0866025404	-0.0050000000)	//	Vertex	R11T2B
   (-0.0500000000	5.0866025404	0.0050000000)	//	Vertex	R11T2T
   (0.0000000000	5.1000000000	-0.0050000000)	//	Vertex	R11T3B
   (0.0000000000	5.1000000000	0.0050000000)	//	Vertex	R11T3T
   (0.0500000000	5.0866025404	-0.0050000000)	//	Vertex	R11T4B
   (0.0500000000	5.0866025404	0.0050000000)	//	Vertex	R11T4T
   (0.2662122080	5.0796315284	-0.0050000000)	//	Vertex	R11T5B
   (0.2662122080	5.0796315284	0.0050000000)	//	Vertex	R11T5T
   (-0.2878477593	5.4924624412	-0.0050000000)	//	Vertex	R12T1B
   (-0.2878477593	5.4924624412	0.0050000000)	//	Vertex	R12T1T
   (-0.0550000000	5.4997249931	-0.0050000000)	//	Vertex	R12T2B
   (-0.0550000000	5.4997249931	0.0050000000)	//	Vertex	R12T2T
   (0.0000000000	5.5000000000	-0.0050000000)	//	Vertex	R12T3B
   (0.0000000000	5.5000000000	0.0050000000)	//	Vertex	R12T3T
   (0.0550000000	5.4997249931	-0.0050000000)	//	Vertex	R12T4B
   (0.0550000000	5.4997249931	0.0050000000)	//	Vertex	R12T4T
   (0.2878477593	5.4924624412	-0.0050000000)	//	Vertex	R12T5B
   (0.2878477593	5.4924624412	0.0050000000)	//	Vertex	R12T5T
   (-0.0574533332	4.7232090707	-0.0050000000)	//	Vertex	DomB_R1T1B
   (-0.0574533332	4.7232090707	0.0050000000)	//	Vertex	DomB_R1T1T
   (-0.0670288888	4.7312439158	-0.0050000000)	//	Vertex	DomB_R1T2B
   (-0.0670288888	4.7312439158	0.0050000000)	//	Vertex	DomB_R1T2T
   (-0.0766044443	4.7392787610	-0.0050000000)	//	Vertex	DomB_R1T3B
   (-0.0766044443	4.7392787610	0.0050000000)	//	Vertex	DomB_R1T3T
   (-0.0559126228	4.7055986701	-0.0050000000)	//	Vertex	DomB_R2T1B
   (-0.0559126228	4.7055986701	0.0050000000)	//	Vertex	DomB_R2T1T
   (-0.0705983276	4.6945791112	-0.0050000000)	//	Vertex	DomB_R2T2B
   (-0.0705983276	4.6945791112	0.0050000000)	//	Vertex	DomB_R2T2T
   (-0.0999697373	4.6725399935	-0.0050000000)	//	Vertex	DomB_R2T3B
   (-0.0999697373	4.6725399935	0.0050000000)	//	Vertex	DomB_R2T3T
   (-0.0080348451	4.6654244445	-0.0050000000)	//	Vertex	DomB_R3T1B
   (-0.0080348451	4.6654244445	0.0050000000)	//	Vertex	DomB_R3T1T
   (-0.0195286981	4.6517266039	-0.0050000000)	//	Vertex	DomB_R3T2B
   (-0.0195286981	4.6517266039	0.0050000000)	//	Vertex	DomB_R3T2T
   (-0.0642787610	4.5983955557	-0.0050000000)	//	Vertex	DomB_R3T3B
   (-0.0642787610	4.5983955557	0.0050000000)	//	Vertex	DomB_R3T3T
   (0.0398429326	4.6252502189	-0.0050000000)	//	Vertex	DomB_R4T1B
   (0.0398429326	4.6252502189	0.0050000000)	//	Vertex	DomB_R4T1T
   (0.0315409315	4.6088740966	-0.0050000000)	//	Vertex	DomB_R4T2B
   (0.0315409315	4.6088740966	0.0050000000)	//	Vertex	DomB_R4T2T
   (0.0149369292	4.5761218520	-0.0050000000)	//	Vertex	DomB_R4T3B
   (0.0149369292	4.5761218520	0.0050000000)	//	Vertex	DomB_R4T3T
   (0.0574533332	4.6267909293	-0.0050000000)	//	Vertex	DomB_R5T1B
   (0.0574533332	4.6267909293	0.0050000000)	//	Vertex	DomB_R5T1T
   (0.0670288888	4.6187560842	-0.0050000000)	//	Vertex	DomB_R5T2B
   (0.0670288888	4.6187560842	0.0050000000)	//	Vertex	DomB_R5T2T
   (0.0766044443	4.6107212390	-0.0050000000)	//	Vertex	DomB_R5T3B
   (0.0766044443	4.6107212390	0.0050000000)	//	Vertex	DomB_R5T3T
   (0.0559126228	4.6444013299	-0.0050000000)	//	Vertex	DomB_R6T1B
   (0.0559126228	4.6444013299	0.0050000000)	//	Vertex	DomB_R6T1T
   (0.0705983276	4.6554208888	-0.0050000000)	//	Vertex	DomB_R6T2B
   (0.0705983276	4.6554208888	0.0050000000)	//	Vertex	DomB_R6T2T
   (0.0999697373	4.6774600065	-0.0050000000)	//	Vertex	DomB_R6T3B
   (0.0999697373	4.6774600065	0.0050000000)	//	Vertex	DomB_R6T3T
   (0.0080348451	4.6845755555	-0.0050000000)	//	Vertex	DomB_R7T1B
   (0.0080348451	4.6845755555	0.0050000000)	//	Vertex	DomB_R7T1T
   (0.0195286981	4.6982733961	-0.0050000000)	//	Vertex	DomB_R7T2B
   (0.0195286981	4.6982733961	0.0050000000)	//	Vertex	DomB_R7T2T
   (0.0642787610	4.7516044443	-0.0050000000)	//	Vertex	DomB_R7T3B
   (0.0642787610	4.7516044443	0.0050000000)	//	Vertex	DomB_R7T3T
   (-0.0398429326	4.7247497811	-0.0050000000)	//	Vertex	DomB_R8T1B
   (-0.0398429326	4.7247497811	0.0050000000)	//	Vertex	DomB_R8T1T
   (-0.0315409315	4.7411259034	-0.0050000000)	//	Vertex	DomB_R8T2B
   (-0.0315409315	4.7411259034	0.0050000000)	//	Vertex	DomB_R8T2T
   (-0.0149369292	4.7738781480	-0.0050000000)	//	Vertex	DomB_R8T3B
   (-0.0149369292	4.7738781480	0.0050000000)	//	Vertex	DomB_R8T3T
   (-0.0574533332	5.0482090707	-0.0050000000)	//	Vertex	DomA_R1T1B
   (-0.0574533332	5.0482090707	0.0050000000)	//	Vertex	DomA_R1T1T
   (-0.0670288888	5.0562439158	-0.0050000000)	//	Vertex	DomA_R1T2B
   (-0.0670288888	5.0562439158	0.0050000000)	//	Vertex	DomA_R1T2T
   (-0.0766044443	5.0642787610	-0.0050000000)	//	Vertex	DomA_R1T3B
   (-0.0766044443	5.0642787610	0.0050000000)	//	Vertex	DomA_R1T3T
   (-0.0559126228	5.0305986701	-0.0050000000)	//	Vertex	DomA_R2T1B
   (-0.0559126228	5.0305986701	0.0050000000)	//	Vertex	DomA_R2T1T
   (-0.0705983276	5.0195791112	-0.0050000000)	//	Vertex	DomA_R2T2B
   (-0.0705983276	5.0195791112	0.0050000000)	//	Vertex	DomA_R2T2T
   (-0.0999697373	4.9975399935	-0.0050000000)	//	Vertex	DomA_R2T3B
   (-0.0999697373	4.9975399935	0.0050000000)	//	Vertex	DomA_R2T3T
   (-0.0080348451	4.9904244445	-0.0050000000)	//	Vertex	DomA_R3T1B
   (-0.0080348451	4.9904244445	0.0050000000)	//	Vertex	DomA_R3T1T
   (-0.0195286981	4.9767266039	-0.0050000000)	//	Vertex	DomA_R3T2B
   (-0.0195286981	4.9767266039	0.0050000000)	//	Vertex	DomA_R3T2T
   (-0.0642787610	4.9233955557	-0.0050000000)	//	Vertex	DomA_R3T3B
   (-0.0642787610	4.9233955557	0.0050000000)	//	Vertex	DomA_R3T3T
   (0.0398429326	4.9502502189	-0.0050000000)	//	Vertex	DomA_R4T1B
   (0.0398429326	4.9502502189	0.0050000000)	//	Vertex	DomA_R4T1T
   (0.0315409315	4.9338740966	-0.0050000000)	//	Vertex	DomA_R4T2B
   (0.0315409315	4.9338740966	0.0050000000)	//	Vertex	DomA_R4T2T
   (0.0149369292	4.9011218520	-0.0050000000)	//	Vertex	DomA_R4T3B
   (0.0149369292	4.9011218520	0.0050000000)	//	Vertex	DomA_R4T3T
   (0.0574533332	4.9517909293	-0.0050000000)	//	Vertex	DomA_R5T1B
   (0.0574533332	4.9517909293	0.0050000000)	//	Vertex	DomA_R5T1T
   (0.0670288888	4.9437560842	-0.0050000000)	//	Vertex	DomA_R5T2B
   (0.0670288888	4.9437560842	0.0050000000)	//	Vertex	DomA_R5T2T
   (0.0766044443	4.9357212390	-0.0050000000)	//	Vertex	DomA_R5T3B
   (0.0766044443	4.9357212390	0.0050000000)	//	Vertex	DomA_R5T3T
   (0.0559126228	4.9694013299	-0.0050000000)	//	Vertex	DomA_R6T1B
   (0.0559126228	4.9694013299	0.0050000000)	//	Vertex	DomA_R6T1T
   (0.0705983276	4.9804208888	-0.0050000000)	//	Vertex	DomA_R6T2B
   (0.0705983276	4.9804208888	0.0050000000)	//	Vertex	DomA_R6T2T
   (0.0999697373	5.0024600065	-0.0050000000)	//	Vertex	DomA_R6T3B
   (0.0999697373	5.0024600065	0.0050000000)	//	Vertex	DomA_R6T3T
   (0.0080348451	5.0095755555	-0.0050000000)	//	Vertex	DomA_R7T1B
   (0.0080348451	5.0095755555	0.0050000000)	//	Vertex	DomA_R7T1T
   (0.0195286981	5.0232733961	-0.0050000000)	//	Vertex	DomA_R7T2B
   (0.0195286981	5.0232733961	0.0050000000)	//	Vertex	DomA_R7T2T
   (0.0642787610	5.0766044443	-0.0050000000)	//	Vertex	DomA_R7T3B
   (0.0642787610	5.0766044443	0.0050000000)	//	Vertex	DomA_R7T3T
   (-0.0398429326	5.0497497811	-0.0050000000)	//	Vertex	DomA_R8T1B
   (-0.0398429326	5.0497497811	0.0050000000)	//	Vertex	DomA_R8T1T
   (-0.0315409315	5.0661259034	-0.0050000000)	//	Vertex	DomA_R8T2B
   (-0.0315409315	5.0661259034	0.0050000000)	//	Vertex	DomA_R8T2T
   (-0.0149369292	5.0988781480	-0.0050000000)	//	Vertex	DomA_R8T3B
   (-0.0149369292	5.0988781480	0.0050000000)	//	Vertex	DomA_R8T3T
);

////////////////////////////////////////////////////////////////////

blocks

(
	hex (0 2 12 10 1 3 13 11) domB (40 36 1) simpleGrading (1.0000 1.0000 1)
	hex (2 4 14 12 3 5 15 13) domB (10 36 1) simpleGrading (1.0000 1.0000 1)
	hex (4 6 16 14 5 7 17 15) domB (10 36 1) simpleGrading (1.0000 1.0000 1)
	hex (6 8 18 16 7 9 19 17) domB (40 36 1) simpleGrading (1.0000 1.0000 1)
	hex (10 12 22 20 11 13 23 21) domB (40 22 1) simpleGrading (1.0000 1.0000 1)
	hex (16 18 26 24 17 19 27 25) domB (40 22 1) simpleGrading (1.0000 1.0000 1)
	hex (20 22 30 28 21 23 31 29) domB (40 22 1) simpleGrading (1.0000 1.0000 1)
	hex (24 26 36 34 25 27 37 35) domB (40 22 1) simpleGrading (1.0000 1.0000 1)
	hex (28 30 40 38 29 31 41 39) domB (40 8 1) simpleGrading (1.0000 1.0000 1)
	hex (30 32 42 40 31 33 43 41) domB (10 8 1) simpleGrading (1.0000 1.0000 1)
	hex (32 34 44 42 33 35 45 43) domB (10 8 1) simpleGrading (1.0000 1.0000 1)
	hex (34 36 46 44 35 37 47 45) domB (40 8 1) simpleGrading (1.0000 1.0000 1)
	hex (38 40 50 48 39 41 51 49) domB (40 6 1) simpleGrading (1.0000 1.0000 1)
	hex (40 42 52 50 41 43 53 51) domB (10 6 1) simpleGrading (1.0000 1.0000 1)
	hex (42 44 54 52 43 45 55 53) domB (10 6 1) simpleGrading (1.0000 1.0000 1)
	hex (44 46 56 54 45 47 57 55) domB (40 6 1) simpleGrading (1.0000 1.0000 1)
	hex (58 60 70 68 59 61 71 69) domA (40 6 1) simpleGrading (1.0000 1.0000 1)
	hex (60 62 72 70 61 63 73 71) domA (10 6 1) simpleGrading (1.0000 1.0000 1)
	hex (62 64 74 72 63 65 75 73) domA (10 6 1) simpleGrading (1.0000 1.0000 1)
	hex (64 66 76 74 65 67 77 75) domA (40 6 1) simpleGrading (1.0000 1.0000 1)
	hex (68 70 80 78 69 71 81 79) domA (40 8 1) simpleGrading (1.0000 1.0000 1)
	hex (70 72 82 80 71 73 83 81) domA (10 8 1) simpleGrading (1.0000 1.0000 1)
	hex (72 74 84 82 73 75 85 83) domA (10 8 1) simpleGrading (1.0000 1.0000 1)
	hex (74 76 86 84 75 77 87 85) domA (40 8 1) simpleGrading (1.0000 1.0000 1)
	hex (78 80 90 88 79 81 91 89) domA (40 22 1) simpleGrading (1.0000 1.0000 1)
	hex (84 86 94 92 85 87 95 93) domA (40 22 1) simpleGrading (1.0000 1.0000 1)
	hex (88 90 98 96 89 91 99 97) domA (40 22 1) simpleGrading (1.0000 1.0000 1)
	hex (92 94 104 102 93 95 105 103) domA (40 22 1) simpleGrading (1.0000 1.0000 1)
	hex (96 98 108 106 97 99 109 107) domA (40 48 1) simpleGrading (1.0000 1.0000 1)
	hex (98 100 110 108 99 101 111 109) domA (10 48 1) simpleGrading (1.0000 1.0000 1)
	hex (100 102 112 110 101 103 113 111) domA (10 48 1) simpleGrading (1.0000 1.0000 1)
	hex (102 104 114 112 103 105 115 113) domA (40 48 1) simpleGrading (1.0000 1.0000 1)
	hex (122 116 118 124 123 117 119 125) domB (16 8 1) simpleGrading (1.0000 2.0000 1)
	hex (128 122 124 130 129 123 125 131) domB (28 8 1) simpleGrading (1.0000 2.0000 1)
	hex (134 128 130 136 135 129 131 137) domB (28 8 1) simpleGrading (1.0000 2.0000 1)
	hex (140 134 136 142 141 135 137 143) domB (16 8 1) simpleGrading (1.0000 2.0000 1)
	hex (146 140 142 148 147 141 143 149) domB (16 8 1) simpleGrading (1.0000 2.0000 1)
	hex (152 146 148 154 153 147 149 155) domB (28 8 1) simpleGrading (1.0000 2.0000 1)
	hex (158 152 154 160 159 153 155 161) domB (28 8 1) simpleGrading (1.0000 2.0000 1)
	hex (116 158 160 118 117 159 161 119) domB (16 8 1) simpleGrading (1.0000 2.0000 1)
	hex (124 118 120 126 125 119 121 127) domB (16 12 1) simpleGrading (1.0000 1.0000 1)
	hex (130 124 126 132 131 125 127 133) domB (28 12 1) simpleGrading (1.0000 1.0000 1)
	hex (136 130 132 138 137 131 133 139) domB (28 12 1) simpleGrading (1.0000 1.0000 1)
	hex (142 136 138 144 143 137 139 145) domB (16 12 1) simpleGrading (1.0000 1.0000 1)
	hex (148 142 144 150 149 143 145 151) domB (16 12 1) simpleGrading (1.0000 1.0000 1)
	hex (154 148 150 156 155 149 151 157) domB (28 12 1) simpleGrading (1.0000 1.0000 1)
	hex (160 154 156 162 161 155 157 163) domB (28 12 1) simpleGrading (1.0000 1.0000 1)
	hex (118 160 162 120 119 161 163 121) domB (16 12 1) simpleGrading (1.0000 1.0000 1)
	hex (170 164 166 172 171 165 167 173) domA (16 8 1) simpleGrading (1.0000 2.0000 1)
	hex (176 170 172 178 177 171 173 179) domA (28 8 1) simpleGrading (1.0000 2.0000 1)
	hex (182 176 178 184 183 177 179 185) domA (28 8 1) simpleGrading (1.0000 2.0000 1)
	hex (188 182 184 190 189 183 185 191) domA (16 8 1) simpleGrading (1.0000 2.0000 1)
	hex (194 188 190 196 195 189 191 197) domA (16 8 1) simpleGrading (1.0000 2.0000 1)
	hex (200 194 196 202 201 195 197 203) domA (28 8 1) simpleGrading (1.0000 2.0000 1)
	hex (206 200 202 208 207 201 203 209) domA (28 8 1) simpleGrading (1.0000 2.0000 1)
	hex (164 206 208 166 165 207 209 167) domA (16 8 1) simpleGrading (1.0000 2.0000 1)
	hex (172 166 168 174 173 167 169 175) domA (16 12 1) simpleGrading (1.0000 2.0000 1)
	hex (178 172 174 180 179 173 175 181) domA (28 12 1) simpleGrading (1.0000 2.0000 1)
	hex (184 178 180 186 185 179 181 187) domA (28 12 1) simpleGrading (1.0000 2.0000 1)
	hex (190 184 186 192 191 185 187 193) domA (16 12 1) simpleGrading (1.0000 2.0000 1)
	hex (196 190 192 198 197 191 193 199) domA (16 12 1) simpleGrading (1.0000 2.0000 1)
	hex (202 196 198 204 203 197 199 205) domA (28 12 1) simpleGrading (1.0000 2.0000 1)
	hex (208 202 204 210 209 203 205 211) domA (28 12 1) simpleGrading (1.0000 2.0000 1)
	hex (166 208 210 168 167 209 211 169) domA (16 12 1) simpleGrading (1.0000 2.0000 1)
);

////////////////////////////////////////////////////////////////////

edges

(
	arc 0 2 (-0.1378806262 4.3728267669 -0.0050000000)
	arc 1 3 (-0.1378806262 4.3728267669 0.0050000000)
	arc 6 8 (0.1378806262 4.3728267669 -0.0050000000)
	arc 7 9 (0.1378806262 4.3728267669 0.0050000000)
	arc 10 12 (-0.1450690843 4.5861035976 -0.0050000000)
	arc 11 13 (-0.1450690843 4.5861035976 0.0050000000)
	arc 16 18 (0.1450690843 4.5861035976 -0.0050000000)
	arc 17 19 (0.1450690843 4.5861035976 0.0050000000)
	arc 20 22 (-0.1723352977 4.6718225079 -0.0050000000)
	arc 21 23 (-0.1723352977 4.6718225079 0.0050000000)
	arc 24 26 (0.1723352977 4.6718225079 -0.0050000000)
	arc 25 27 (0.1723352977 4.6718225079 0.0050000000)
	arc 28 30 (-0.1496015111 4.7592518467 -0.0050000000)
	arc 29 31 (-0.1496015111 4.7592518467 0.0050000000)
	arc 34 36 (0.1496015111 4.7592518467 -0.0050000000)
	arc 35 37 (0.1496015111 4.7592518467 0.0050000000)
	arc 38 40 (-0.1514717165 4.8038625482 -0.0050000000)
	arc 39 41 (-0.1514717165 4.8038625482 0.0050000000)
	arc 44 46 (0.1514717165 4.8038625482 -0.0050000000)
	arc 45 47 (0.1514717165 4.8038625482 0.0050000000)
	arc 48 50 (-0.1524565781 4.8350970251 -0.0050000000)
	arc 49 51 (-0.1524565781 4.8350970251 0.0050000000)
	arc 54 56 (0.1524565781 4.8350970251 -0.0050000000)
	arc 55 57 (0.1524565781 4.8350970251 0.0050000000)
	arc 58 60 (-0.1507750942 4.8351497517 -0.0050000000)
	arc 59 61 (-0.1507750942 4.8351497517 0.0050000000)
	arc 64 66 (0.1507750942 4.8351497517 -0.0050000000)
	arc 65 67 (0.1507750942 4.8351497517 0.0050000000)
	arc 68 70 (-0.1517490935 4.8663845692 -0.0050000000)
	arc 69 71 (-0.1517490935 4.8663845692 0.0050000000)
	arc 74 76 (0.1517490935 4.8663845692 -0.0050000000)
	arc 75 77 (0.1517490935 4.8663845692 0.0050000000)
	arc 78 80 (-0.1535736772 4.9109968155 -0.0050000000)
	arc 79 81 (-0.1535736772 4.9109968155 0.0050000000)
	arc 84 86 (0.1535736772 4.9109968155 -0.0050000000)
	arc 85 87 (0.1535736772 4.9109968155 0.0050000000)
	arc 88 90 (-0.1808398906 4.9967286232 -0.0050000000)
	arc 89 91 (-0.1808398906 4.9967286232 0.0050000000)
	arc 92 94 (0.1808398906 4.9967286232 -0.0050000000)
	arc 93 95 (0.1808398906 4.9967286232 0.0050000000)
	arc 96 98 (-0.1581061040 5.0841447524 -0.0050000000)
	arc 97 99 (-0.1581061040 5.0841447524 0.0050000000)
	arc 102 104 (0.1581061040 5.0841447524 -0.0050000000)
	arc 103 105 (0.1581061040 5.0841447524 0.0050000000)
	arc 106 108 (-0.1714238797 5.4973278830 -0.0050000000)
	arc 107 109 (-0.1714238797 5.4973278830 0.0050000000)
	arc 112 114 (0.1714238797 5.4973278830 -0.0050000000)
	arc 113 115 (0.1714238797 5.4973278830 0.0050000000)
	arc 2 4 (-0.0233957219 4.3749374441 -0.0050000000)
	arc 3 5 (-0.0233957219 4.3749374441 0.0050000000)
	arc 4 6 (0.0233957219 4.3749374441 -0.0050000000)
	arc 5 7 (0.0233957219 4.3749374441 0.0050000000)
	arc 40 42 (-0.0257018717 4.8061812779 -0.0050000000)
	arc 41 43 (-0.0257018717 4.8061812779 0.0050000000)
	arc 42 44 (0.0257018717 4.8061812779 -0.0050000000)
	arc 43 45 (0.0257018717 4.8061812779 0.0050000000)
	arc 50 52 (-0.0258689840 4.8374308311 -0.0050000000)
	arc 51 53 (-0.0258689840 4.8374308311 0.0050000000)
	arc 52 54 (0.0258689840 4.8374308311 -0.0050000000)
	arc 53 55 (0.0258689840 4.8374308311 0.0050000000)
	arc 60 62 (-0.0241875000 4.8374395309 -0.0050000000)
	arc 61 63 (-0.0241875000 4.8374395309 0.0050000000)
	arc 62 64 (0.0241875000 4.8374395309 -0.0050000000)
	arc 63 65 (0.0241875000 4.8374395309 0.0050000000)
	arc 70 72 (-0.0243437500 4.8686891402 -0.0050000000)
	arc 71 73 (-0.0243437500 4.8686891402 0.0050000000)
	arc 72 74 (0.0243437500 4.8686891402 -0.0050000000)
	arc 73 75 (0.0243437500 4.8686891402 0.0050000000)
	arc 108 110 (-0.0275000000 5.4999312496 -0.0050000000)
	arc 109 111 (-0.0275000000 5.4999312496 0.0050000000)
	arc 110 112 (0.0275000000 5.4999312496 -0.0050000000)
	arc 111 113 (0.0275000000 5.4999312496 0.0050000000)
	arc 12 14 (-0.0250000000 4.5781754163 -0.0050000000)
	arc 30 32 (-0.0250000000 4.7718245837 -0.0050000000)
	arc 80 82 (-0.0250000000 4.9031754163 -0.0050000000)
	arc 98 100 (-0.0250000000 5.0968245837 -0.0050000000)
	arc 13 15 (-0.0250000000 4.5781754163 0.0050000000)
	arc 31 33 (-0.0250000000 4.7718245837 0.0050000000)
	arc 81 83 (-0.0250000000 4.9031754163 0.0050000000)
	arc 99 101 (-0.0250000000 5.0968245837 0.0050000000)
	arc 14 16 (0.0250000000 4.5781754163 -0.0050000000)
	arc 32 34 (0.0250000000 4.7718245837 -0.0050000000)
	arc 82 84 (0.0250000000 4.9031754163 -0.0050000000)
	arc 100 102 (0.0250000000 5.0968245837 -0.0050000000)
	arc 15 17 (0.0250000000 4.5781754163 0.0050000000)
	arc 33 35 (0.0250000000 4.7718245837 0.0050000000)
	arc 83 85 (0.0250000000 4.9031754163 0.0050000000)
	arc 101 103 (0.0250000000 5.0968245837 0.0050000000)
	arc 12 22 (-0.0750000000 4.6088562172 -0.0050000000)
	arc 22 30 (-0.0750000000 4.7411437828 -0.0050000000)
	arc 90 98 (-0.0750000000 5.0661437828 -0.0050000000)
	arc 80 90 (-0.0750000000 4.9338562172 -0.0050000000)
	arc 13 23 (-0.0750000000 4.6088562172 0.0050000000)
	arc 23 31 (-0.0750000000 4.7411437828 0.0050000000)
	arc 91 99 (-0.0750000000 5.0661437828 0.0050000000)
	arc 81 91 (-0.0750000000 4.9338562172 0.0050000000)
	arc 16 24 (0.0750000000 4.6088562172 -0.0050000000)
	arc 24 34 (0.0750000000 4.7411437828 -0.0050000000)
	arc 92 102 (0.0750000000 5.0661437828 -0.0050000000)
	arc 84 92 (0.0750000000 4.9338562172 -0.0050000000)
	arc 17 25 (0.0750000000 4.6088562172 0.0050000000)
	arc 25 35 (0.0750000000 4.7411437828 0.0050000000)
	arc 93 103 (0.0750000000 5.0661437828 0.0050000000)
	arc 85 93 (0.0750000000 4.9338562172 0.0050000000)
	arc 116 122 (-0.0596239355 4.7108989738 -0.0050000000)
	arc 117 123 (-0.0596239355 4.7108989738 0.0050000000)
	arc 134 140 (0.0457071755 4.6225156775 -0.0050000000)
	arc 135 141 (0.0457071755 4.6225156775 0.0050000000)
	arc 140 146 (0.0596239355 4.6391010262 -0.0050000000)
	arc 141 147 (0.0596239355 4.6391010262 0.0050000000)
	arc 158 116 (-0.0457071755 4.7274843225 -0.0050000000)
	arc 159 117 (-0.0457071755 4.7274843225 0.0050000000)
	arc 164 170 (-0.0596239355 5.0358989738 -0.0050000000)
	arc 165 171 (-0.0596239355 5.0358989738 0.0050000000)
	arc 182 188 (0.0457071755 4.9475156775 -0.0050000000)
	arc 183 189 (0.0457071755 4.9475156775 0.0050000000)
	arc 188 194 (0.0596239355 4.9641010262 -0.0050000000)
	arc 189 195 (0.0596239355 4.9641010262 0.0050000000)
	arc 206 164 (-0.0457071755 5.0524843225 -0.0050000000)
	arc 207 165 (-0.0457071755 5.0524843225 0.0050000000)
	arc 120 126 (-0.0981477101 4.6941579487 -0.0050000000)
	arc 121 127 (-0.0981477101 4.6941579487 0.0050000000)
	arc 126 132 (-0.0883146728 4.6280903149 -0.0050000000)
	arc 127 133 (-0.0883146728 4.6280903149 0.0050000000)
	arc 132 138 (-0.0308613396 4.5798812441 -0.0050000000)
	arc 133 139 (-0.0308613396 4.5798812441 0.0050000000)
	arc 138 144 (0.0359100674 4.5816701170 -0.0050000000)
	arc 139 145 (0.0359100674 4.5816701170 0.0050000000)
	arc 144 150 (0.0981477101 4.6558420513 -0.0050000000)
	arc 145 151 (0.0981477101 4.6558420513 0.0050000000)
	arc 150 156 (0.0883146728 4.7219096851 -0.0050000000)
	arc 151 157 (0.0883146728 4.7219096851 0.0050000000)
	arc 156 162 (0.0308613396 4.7701187559 -0.0050000000)
	arc 157 163 (0.0308613396 4.7701187559 0.0050000000)
	arc 162 120 (-0.0359100674 4.7683298830 -0.0050000000)
	arc 163 121 (-0.0359100674 4.7683298830 0.0050000000)
	arc 168 174 (-0.0981477101 5.0191579487 -0.0050000000)
	arc 169 175 (-0.0981477101 5.0191579487 0.0050000000)
	arc 174 180 (-0.0883146728 4.9530903149 -0.0050000000)
	arc 175 181 (-0.0883146728 4.9530903149 0.0050000000)
	arc 180 186 (-0.0308613396 4.9048812441 -0.0050000000)
	arc 181 187 (-0.0308613396 4.9048812441 0.0050000000)
	arc 186 192 (0.0359100674 4.9066701170 -0.0050000000)
	arc 187 193 (0.0359100674 4.9066701170 0.0050000000)
	arc 192 198 (0.0981477101 4.9808420513 -0.0050000000)
	arc 193 199 (0.0981477101 4.9808420513 0.0050000000)
	arc 198 204 (0.0883146728 5.0469096851 -0.0050000000)
	arc 199 205 (0.0883146728 5.0469096851 0.0050000000)
	arc 204 210 (0.0308613396 5.0951187559 -0.0050000000)
	arc 205 211 (0.0308613396 5.0951187559 0.0050000000)
	arc 210 168 (-0.0359100674 5.0933298830 -0.0050000000)
	arc 211 169 (-0.0359100674 5.0933298830 0.0050000000)

);

////////////////////////////////////////////////////////////////////

patches

(
wall bladeDomB
   (
   (122 116 117 123)
   (128 122 123 129)
   (134 128 129 135)
   (140 134 135 141)
   (146 140 141 147)
   (152 146 147 153)
   (158 152 153 159)
   (116 158 159 117)
   )

wall bladeDomA
   (
   (170 164 165 171)
   (176 170 171 177)
   (182 176 177 183)
   (188 182 183 189)
   (194 188 189 195)
   (200 194 195 201)
   (206 200 201 207)
   (164 206 207 165)
   )

patch outletDomB
   (
   (0 2 3 1)
   (2 4 5 3)
   (4 6 7 5)
   (6 8 9 7)
   )

patch inletDomA
   (
   (108 106 107 109)
   (110 108 109 111)
   (112 110 111 113)
   (114 112 113 115)
   )

ggi outletDomA
   (
   (58 60 61 59)
   (60 62 63 61)
   (62 64 65 63)
   (64 66 67 65)
   )

ggi	inletDomB
   (
   (50 48 49 51)
   (52 50 51 53)
   (54 52 53 55)
   (56 54 55 57)
   )

wall	ggi1DomB
   (
   (14 12 13 15)
   (16 14 15 17)
   (24 16 17 25)
   (34 24 25 35)
   (32 34 35 33)
   (30 32 33 31)
   (22 30 31 23)
   (12 22 23 13)
   )

wall	ggi1DomA
   (
   (82 80 81 83)
   (84 82 83 85)
   (84 92 93 85)
   (92 102 103 93)
   (100 102 103 101)
   (98 100 101 99)
   (90 80 81 91)
   (98 90 91 99)
   )

wall	ggi2DomB
   (
   (120 126 127 121)
   (126 132 133 127)
   (132 138 139 133)
   (138 144 145 139)
   (144 150 151 145)
   (150 156 157 151)
   (156 162 163 157)
   (162 120 121 163)
   )

wall	ggi2DomA
   (
   (168 174 175 169)
   (174 180 181 175)
   (180 186 187 181)
   (186 192 193 187)
   (192 198 199 193)
   (198 204 205 199)
   (204 210 211 205)
   (210 168 169 211)
   )

empty topAndBottom
   (
   (1 3 13 11)
   (10 12 2 0)
   (3 5 15 13)
   (12 14 4 2)
   (5 7 17 15)
   (14 16 6 4)
   (7 9 19 17)
   (16 18 8 6)
   (11 13 23 21)
   (20 22 12 10)
   (17 19 27 25)
   (24 26 18 16)
   (21 23 31 29)
   (28 30 22 20)
   (25 27 37 35)
   (34 36 26 24)
   (29 31 41 39)
   (38 40 30 28)
   (31 33 43 41)
   (40 42 32 30)
   (33 35 45 43)
   (42 44 34 32)
   (35 37 47 45)
   (44 46 36 34)
   (39 41 51 49)
   (48 50 40 38)
   (41 43 53 51)
   (50 52 42 40)
   (43 45 55 53)